<configuration>
    <input>
        <net-file value="environments/single-intersection.net.xml"/>
        <route-files value="environments/single-intersection-vhvh.rou.xml"/>
    </input>
    <time>
        <begin value="0"/>
    </time>
    <output>
        <output-file value="output_cyclic/Cyclic.csv"/>
    </output>
    <report>
        <no-step-log value="true"/>
    </report>
    <gui-only>
        <start value="false"/>
    </gui-only>
</configuration>
