<?xml version='1.0' encoding='utf-8'?>
<routes>
                <route id="route_ns" edges="n_t t_s" />
                <route id="route_nw" edges="n_t t_w" />
                <route id="route_ne" edges="n_t t_e" />
                <route id="route_we" edges="w_t t_e" />
                <route id="route_wn" edges="w_t t_n" />
                <route id="route_ws" edges="w_t t_s" />
                <route id="route_ew" edges="e_t t_w" />
                <route id="route_en" edges="e_t t_n" />
                <route id="route_es" edges="e_t t_s" />
                <route id="route_sn" edges="s_t t_n" />
                <route id="route_se" edges="s_t t_e" />
                <route id="route_sw" edges="s_t t_w" />
    <flow id="flow_ns_0" route="route_ns" begin="0" end="100000" vehsPerHour="348" departSp100000d="max" departPos="base" departLane="best" />
    <flow id="flow_nw_0" route="route_nw" begin="0" end="100000" vehsPerHour="88" departSp100000d="max" departPos="base" departLane="best" />
    <flow id="flow_ne_0" route="route_ne" begin="0" end="100000" vehsPerHour="53" departSp100000d="max" departPos="base" departLane="best" />
    <flow id="flow_sw_0" route="route_sw" begin="0" end="100000" vehsPerHour="311" departSp100000d="max" departPos="base" departLane="best" />
    <flow id="flow_sn_0" route="route_sn" begin="0" end="100000" vehsPerHour="252" departSp100000d="max" departPos="base" departLane="best" />
    <flow id="flow_se_0" route="route_se" begin="0" end="100000" vehsPerHour="347" departSp100000d="max" departPos="base" departLane="best" />

    <flow id="flow_en_0" route="route_en" begin="0" end="100000" vehsPerHour="260" departSp100000d="max" departPos="base" departLane="best" />
    <flow id="flow_ew_0" route="route_ew" begin="0" end="100000" vehsPerHour="69" departSp100000d="max" departPos="base" departLane="best" />
    <flow id="flow_es_0" route="route_es" begin="0" end="100000" vehsPerHour="261" departSp100000d="max" departPos="base" departLane="best" />
    <flow id="flow_wn_0" route="route_wn" begin="0" end="100000" vehsPerHour="335" departSp100000d="max" departPos="base" departLane="best" />
    <flow id="flow_we_0" route="route_we" begin="0" end="100000" vehsPerHour="222" departSp100000d="max" departPos="base" departLane="best" />
    <flow id="flow_ws_0" route="route_ws" begin="0" end="100000" vehsPerHour="236" departSp100000d="max" departPos="base" departLane="best" /><flow id="flow_ns_1" route="route_ns" begin="100000" end="200000" vehsPerHour="188" departSp200000d="max" departPos="base" departLane="best" />
    <flow id="flow_nw_1" route="route_nw" begin="100000" end="200000" vehsPerHour="83" departSp200000d="max" departPos="base" departLane="best" />
    <flow id="flow_ne_1" route="route_ne" begin="100000" end="200000" vehsPerHour="171" departSp200000d="max" departPos="base" departLane="best" />
    <flow id="flow_sw_1" route="route_sw" begin="100000" end="200000" vehsPerHour="178" departSp200000d="max" departPos="base" departLane="best" />
    <flow id="flow_sn_1" route="route_sn" begin="100000" end="200000" vehsPerHour="304" departSp200000d="max" departPos="base" departLane="best" />
    <flow id="flow_se_1" route="route_se" begin="100000" end="200000" vehsPerHour="77" departSp200000d="max" departPos="base" departLane="best" />

    <flow id="flow_en_1" route="route_en" begin="100000" end="200000" vehsPerHour="161" departSp200000d="max" departPos="base" departLane="best" />
    <flow id="flow_ew_1" route="route_ew" begin="100000" end="200000" vehsPerHour="135" departSp200000d="max" departPos="base" departLane="best" />
    <flow id="flow_es_1" route="route_es" begin="100000" end="200000" vehsPerHour="84" departSp200000d="max" departPos="base" departLane="best" />
    <flow id="flow_wn_1" route="route_wn" begin="100000" end="200000" vehsPerHour="92" departSp200000d="max" departPos="base" departLane="best" />
    <flow id="flow_we_1" route="route_we" begin="100000" end="200000" vehsPerHour="154" departSp200000d="max" departPos="base" departLane="best" />
    <flow id="flow_ws_1" route="route_ws" begin="100000" end="200000" vehsPerHour="79" departSp200000d="max" departPos="base" departLane="best" /><flow id="flow_ns_2" route="route_ns" begin="200000" end="300000" vehsPerHour="91" departSp300000d="max" departPos="base" departLane="best" />
    <flow id="flow_nw_2" route="route_nw" begin="200000" end="300000" vehsPerHour="324" departSp300000d="max" departPos="base" departLane="best" />
    <flow id="flow_ne_2" route="route_ne" begin="200000" end="300000" vehsPerHour="120" departSp300000d="max" departPos="base" departLane="best" />
    <flow id="flow_sw_2" route="route_sw" begin="200000" end="300000" vehsPerHour="337" departSp300000d="max" departPos="base" departLane="best" />
    <flow id="flow_sn_2" route="route_sn" begin="200000" end="300000" vehsPerHour="165" departSp300000d="max" departPos="base" departLane="best" />
    <flow id="flow_se_2" route="route_se" begin="200000" end="300000" vehsPerHour="237" departSp300000d="max" departPos="base" departLane="best" />

    <flow id="flow_en_2" route="route_en" begin="200000" end="300000" vehsPerHour="234" departSp300000d="max" departPos="base" departLane="best" />
    <flow id="flow_ew_2" route="route_ew" begin="200000" end="300000" vehsPerHour="121" departSp300000d="max" departPos="base" departLane="best" />
    <flow id="flow_es_2" route="route_es" begin="200000" end="300000" vehsPerHour="306" departSp300000d="max" departPos="base" departLane="best" />
    <flow id="flow_wn_2" route="route_wn" begin="200000" end="300000" vehsPerHour="311" departSp300000d="max" departPos="base" departLane="best" />
    <flow id="flow_we_2" route="route_we" begin="200000" end="300000" vehsPerHour="276" departSp300000d="max" departPos="base" departLane="best" />
    <flow id="flow_ws_2" route="route_ws" begin="200000" end="300000" vehsPerHour="77" departSp300000d="max" departPos="base" departLane="best" />
    <flow id="flow_ns_3" route="route_ns" begin="300000" end="400000" vehsPerHour="110" departSp400000d="max" departPos="base" departLane="best" />
    <flow id="flow_nw_3" route="route_nw" begin="300000" end="400000" vehsPerHour="98" departSp400000d="max" departPos="base" departLane="best" />
    <flow id="flow_ne_3" route="route_ne" begin="300000" end="400000" vehsPerHour="262" departSp400000d="max" departPos="base" departLane="best" />
    <flow id="flow_sw_3" route="route_sw" begin="300000" end="400000" vehsPerHour="345" departSp400000d="max" departPos="base" departLane="best" />
    <flow id="flow_sn_3" route="route_sn" begin="300000" end="400000" vehsPerHour="288" departSp400000d="max" departPos="base" departLane="best" />
    <flow id="flow_se_3" route="route_se" begin="300000" end="400000" vehsPerHour="82" departSp400000d="max" departPos="base" departLane="best" />

    <flow id="flow_en_3" route="route_en" begin="300000" end="400000" vehsPerHour="260" departSp400000d="max" departPos="base" departLane="best" />
    <flow id="flow_ew_3" route="route_ew" begin="300000" end="400000" vehsPerHour="181" departSp400000d="max" departPos="base" departLane="best" />
    <flow id="flow_es_3" route="route_es" begin="300000" end="400000" vehsPerHour="64" departSp400000d="max" departPos="base" departLane="best" />
    <flow id="flow_wn_3" route="route_wn" begin="300000" end="400000" vehsPerHour="175" departSp400000d="max" departPos="base" departLane="best" />
    <flow id="flow_we_3" route="route_we" begin="300000" end="400000" vehsPerHour="269" departSp400000d="max" departPos="base" departLane="best" />
    <flow id="flow_ws_3" route="route_ws" begin="300000" end="400000" vehsPerHour="187" departSp400000d="max" departPos="base" departLane="best" />
    </routes>